blindII
 OpenBabel06271822073D

 43 45  0  0  0  0  0  0  0  0999 V2000
    3.9054    3.1801   12.7970 C   0  0  0  0  0  0  0  0  0  0  0  0
    2.8457    4.0435   13.0316 C   0  0  0  0  0  0  0  0  0  0  0  0
    2.4081    4.2995   14.3166 C   0  0  0  0  0  0  0  0  0  0  0  0
    3.0037    3.6888   15.3792 C   0  0  0  0  0  0  0  0  0  0  0  0
    4.0327    2.8141   15.1676 C   0  0  0  0  0  0  0  0  0  0  0  0
    4.4752    2.5581   13.8962 C   0  0  0  0  0  0  0  0  0  0  0  0
    4.4258    2.9158   11.4037 C   0  0  0  0  0  0  0  0  0  0  0  0
    2.4515    4.4782   12.2480 H   0  0  0  0  0  0  0  0  0  0  0  0
    1.6962    4.8946   14.4221 H   0  0  0  0  0  0  0  0  0  0  0  0
    4.4360    2.3544   15.9531 H   0  0  0  0  0  0  0  0  0  0  0  0
    5.1896    1.9501   13.7660 H   0  0  0  0  0  0  0  0  0  0  0  0
    4.1889    3.6190   10.7025 H   0  0  0  0  0  0  0  0  0  0  0  0
    5.4684    2.9614   11.2889 H   0  0  0  0  0  0  0  0  0  0  0  0
    4.5315    1.3146    9.4607 C   0  0  0  0  0  0  0  0  0  0  0  0
    5.5912    0.4511    9.2260 C   0  0  0  0  0  0  0  0  0  0  0  0
    6.0288    0.1951    7.9411 C   0  0  0  0  0  0  0  0  0  0  0  0
    5.4332    0.8058    6.8784 C   0  0  0  0  0  0  0  0  0  0  0  0
    4.4042    1.6805    7.0901 C   0  0  0  0  0  0  0  0  0  0  0  0
    3.9617    1.9365    8.3615 C   0  0  0  0  0  0  0  0  0  0  0  0
    4.0111    1.5788   10.8539 C   0  0  0  0  0  0  0  0  0  0  0  0
    5.9855    0.0164   10.0096 H   0  0  0  0  0  0  0  0  0  0  0  0
    6.7408   -0.4000    7.8355 H   0  0  0  0  0  0  0  0  0  0  0  0
    3.2474    2.5445    8.4917 H   0  0  0  0  0  0  0  0  0  0  0  0
    4.2480    0.8757   11.5551 H   0  0  0  0  0  0  0  0  0  0  0  0
    2.9685    1.5332   10.9688 H   0  0  0  0  0  0  0  0  0  0  0  0
   -1.2948    4.9405   19.4688 H   0  0  0  0  0  0  0  0  0  0  0  0
    1.7606    4.3776   17.4240 C   0  0  0  0  0  0  0  0  0  0  0  0
    0.6090    3.6124   17.2343 C   0  0  0  0  0  0  0  0  0  0  0  0
    0.6010    2.9524   16.5794 H   0  0  0  0  0  0  0  0  0  0  0  0
   -0.5072    3.8185   17.9958 C   0  0  0  0  0  0  0  0  0  0  0  0
   -1.2631    3.2950   17.8540 H   0  0  0  0  0  0  0  0  0  0  0  0
   -0.5257    4.7898   18.9689 C   0  0  0  0  0  0  0  0  0  0  0  0
    0.5982    5.5297   19.1908 C   0  0  0  0  0  0  0  0  0  0  0  0
    0.5892    6.1759   19.8602 H   0  0  0  0  0  0  0  0  0  0  0  0
    1.7549    5.3468   18.4485 C   0  0  0  0  0  0  0  0  0  0  0  0
    2.9614    6.1266   18.7651 C   0  0  0  0  0  0  0  0  0  0  0  0
    2.8905    4.1711   16.6886 N   0  0  0  0  0  0  0  0  0  0  0  0
    2.8266    6.9509   19.7918 O   0  0  0  0  0  0  0  0  0  0  0  0
    4.0133    6.0370   18.1674 O   0  0  0  0  0  0  0  0  0  0  0  0
    3.4522    4.6179   17.1296 H   0  0  0  0  0  0  0  0  0  0  0  0
    3.7229    7.4587   19.9035 H   0  0  0  0  0  0  0  0  0  0  0  0
    3.6913    2.4933    5.7013 Cl  0  0  0  0  0  0  0  0  0  0  0  0
    6.0014    0.5229    5.2368 Cl  0  0  0  0  0  0  0  0  0  0  0  0
  1  2  2  0  0  0  0
  1  6  1  0  0  0  0
  2  3  1  0  0  0  0
  3  9  1  0  0  0  0
  3  4  2  0  0  0  0
  4 37  1  0  0  0  0
  5  4  1  0  0  0  0
  5 10  1  0  0  0  0
  6  5  2  0  0  0  0
  7  1  1  0  0  0  0
  8  2  1  0  0  0  0
 11  6  1  0  0  0  0
 12  7  1  0  0  0  0
 13  7  1  0  0  0  0
 14 20  1  0  0  0  0
 15 14  1  0  0  0  0
 15 21  1  0  0  0  0
 16 15  2  0  0  0  0
 17 18  2  0  0  0  0
 17 16  1  0  0  0  0
 18 19  1  0  0  0  0
 19 23  1  0  0  0  0
 19 14  2  0  0  0  0
 20 25  1  0  0  0  0
 20  7  1  0  0  0  0
 20 24  1  0  0  0  0
 22 16  1  0  0  0  0
 27 35  1  0  0  0  0
 28 27  2  0  0  0  0
 28 30  1  0  0  0  0
 29 28  1  0  0  0  0
 30 32  2  0  0  0  0
 31 30  1  0  0  0  0
 32 33  1  0  0  0  0
 32 26  1  0  0  0  0
 33 34  1  0  0  0  0
 35 36  1  0  0  0  0
 35 33  2  0  0  0  0
 36 38  1  0  0  0  0
 37 40  1  0  0  0  0
 37 27  1  0  0  0  0
 38 41  1  0  0  0  0
 39 36  2  0  0  0  0
 42 18  1  0  0  0  0
 43 17  1  0  0  0  0
M  END